cnsvnlvs 360
magistras qui publice Athenis iuvenes docerent, ut Herodes selegerat,
ei imperator M. Antoninus mandare solebat Pbrloslr. 2, 2, 2.

Iudicium Philostrati de eloquentia eius vitu 34-35 es. W. Schmidt,
Der Atticismns Ι ρ. 192 sqq. Extat oratio quae inscribitur Ἡρώδου
περὶ πολιτείαςς argumentum orationis eontra Stoicos habitae refertur
a Gellio 19, 12. Ἐπιστολαί δὲ πλεῖσται Ἡρώδου καὶ διαλέξεις καί ἐφη·
μερίδες, ἐγχρειρίδια τε καὶ καίρια τὴν ἀρχαίαν πολυμαθίαν ἐν βραχεῖ ἀπην-
δισρένα vita 36 (inde Suidas s. o. Ἡρώδῃςίς indiarum de epistulis Herodis
Pbrlostr. epist. p. 268 ed. Kayser.

656 m. cummunionem nnnoomnsm, Τῐ. Claudii) Attici st Vi-
bulliae Alciae filius bonoratus l. in Oea insula reperto OIG 2371,
quun posuit ἡ πόλις Ἰουλιητῶν. Frater igitur Attici Herodis sophistae
natu ms‘nor, ut en nominibus apparet.

657 Claudius Augustalis, adulescens, amicus Columellas Col. 11,1, 1.

658 Tib. Claudius Augustanus, Tib. f., tribu Quir.; procurator Augusti
provinciae Britanniae, pater (naturalis) Belliei Sollertis (= Ti. Claudi
Alpini o. sagara Β 85), socer Claudiae Marcellinus, quae ei posuit
t. Veronensem V3337.

656 L. TI. OLAVDIVS AVRELIVS varlsnvs corisul a. 235 cum Cn.
Claudio Severo. Titulus Carrinensis ei a Ti. Cl(audio) Felice Ilviro
amico positus X 3850. —- Plena nomem enbibet tit.; in cumulata:
Ti. Claudius Quintianus VI 2001. 2009, celerum Quintianus fasti.

Tribu Quirina. Triumvir monetalis aere argento auro flando
feriando, quaestor candidatus praetor, consul ut, a. 235 fasti; ponti·
fex tit.

666 ΤΙΒ. CL(AVD1VS)AVR(EL1VS) TELEMACHVS, vir clarissimus, nepos
Ti. Claudii Telemachi metueretur in t. aui Benndors, Reisen in [syrien
ρ. 67 n. 62. Vide infra sub aro.

661 Ti. Claudius B[a]l ..... procurator Aug. (Claudii vel Neronis) bono-
ratast. Deliaco qraeee υυνίρίυ Bullatin de correspondanee Hellenibus

' ΙΙΙ (1879) p. 100 n. 9, qaum posuit Ti. Claudius Novius (ef. OJA III
457. 652. 1085),· in lapide superest BAA, Βαλ[εριαν6ν] supplevit sine
eausa Homolle qai entatu inania ex spatio litterarum supplendum videtur
Βοίλ[βον] potiusquam Βαλ[βῖνον] vel Bulsslrllovl.

662 Ti. Claudius Balbillus inemoralnr in l. Aegyptiis CIG 4699 ( ).
4957 o. 28 (2), in t. libertae Portnensi 1611323 = 016 6668 ( ).

Plenanonsina subibat t. 1, Balbillus t. 2, Claudia Balbilli l. t. 3;
apud scriptores C. (sio traditur) Balbillus Tae. a. 13, 22, alibi Bal-
billus. - Praefectus Aegypti auno 55 nuncupatus Tac. l. l, Suwca
natur. qaaest.4,2, 13, Plinius n. t. 19, 3, lit. 1. 2. - Virorum
optimus profectusque in omni litterarum genere rarissimi citatur
Sen. l. l.

663 [causans nsssvs [onestromnvs consul (suffectus anno iurato)
VI 3829 es. Epirum. (11.4, 820 ί. urbanus mutilus sumplus ‘litteris

 

